* NGSPICE file created from FIFO.ext - technology: sky130A

* Black-box entry subcircuit for sky130_fd_sc_hd__fill_1 abstract view
.subckt sky130_fd_sc_hd__fill_1 VGND VNB VPB VPWR
.ends

* Black-box entry subcircuit for sky130_ef_sc_hd__decap_12 abstract view
.subckt sky130_ef_sc_hd__decap_12 VPWR VGND VPB VNB
.ends

* Black-box entry subcircuit for sky130_fd_sc_hd__tapvpwrvgnd_1 abstract view
.subckt sky130_fd_sc_hd__tapvpwrvgnd_1 VGND VPWR
.ends

* Black-box entry subcircuit for sky130_fd_sc_hd__decap_8 abstract view
.subckt sky130_fd_sc_hd__decap_8 VGND VNB VPB VPWR
.ends

* Black-box entry subcircuit for sky130_fd_sc_hd__decap_3 abstract view
.subckt sky130_fd_sc_hd__decap_3 VGND VNB VPB VPWR
.ends

* Black-box entry subcircuit for sky130_fd_sc_hd__decap_4 abstract view
.subckt sky130_fd_sc_hd__decap_4 VGND VNB VPB VPWR
.ends

* Black-box entry subcircuit for sky130_fd_sc_hd__dfxtp_1 abstract view
.subckt sky130_fd_sc_hd__dfxtp_1 CLK D VGND VNB VPB VPWR Q
.ends

* Black-box entry subcircuit for sky130_fd_sc_hd__decap_6 abstract view
.subckt sky130_fd_sc_hd__decap_6 VGND VNB VPB VPWR
.ends

* Black-box entry subcircuit for sky130_fd_sc_hd__mux2_1 abstract view
.subckt sky130_fd_sc_hd__mux2_1 A0 A1 S VGND VNB VPB VPWR X
.ends

* Black-box entry subcircuit for sky130_fd_sc_hd__clkbuf_8 abstract view
.subckt sky130_fd_sc_hd__clkbuf_8 A VGND VNB VPB VPWR X
.ends

* Black-box entry subcircuit for sky130_fd_sc_hd__clkbuf_1 abstract view
.subckt sky130_fd_sc_hd__clkbuf_1 A VGND VNB VPB VPWR X
.ends

* Black-box entry subcircuit for sky130_fd_sc_hd__fill_2 abstract view
.subckt sky130_fd_sc_hd__fill_2 VGND VNB VPB VPWR
.ends

* Black-box entry subcircuit for sky130_fd_sc_hd__dlygate4sd3_1 abstract view
.subckt sky130_fd_sc_hd__dlygate4sd3_1 A VGND VNB VPB VPWR X
.ends

* Black-box entry subcircuit for sky130_fd_sc_hd__or4_1 abstract view
.subckt sky130_fd_sc_hd__or4_1 A B C D VGND VNB VPB VPWR X
.ends

* Black-box entry subcircuit for sky130_fd_sc_hd__a221o_1 abstract view
.subckt sky130_fd_sc_hd__a221o_1 A1 A2 B1 B2 C1 VGND VNB VPB VPWR X
.ends

* Black-box entry subcircuit for sky130_fd_sc_hd__buf_2 abstract view
.subckt sky130_fd_sc_hd__buf_2 A VGND VNB VPB VPWR X
.ends

* Black-box entry subcircuit for sky130_fd_sc_hd__a21o_1 abstract view
.subckt sky130_fd_sc_hd__a21o_1 A1 A2 B1 VGND VNB VPB VPWR X
.ends

* Black-box entry subcircuit for sky130_fd_sc_hd__xnor2_1 abstract view
.subckt sky130_fd_sc_hd__xnor2_1 A B VGND VNB VPB VPWR Y
.ends

* Black-box entry subcircuit for sky130_fd_sc_hd__a22o_1 abstract view
.subckt sky130_fd_sc_hd__a22o_1 A1 A2 B1 B2 VGND VNB VPB VPWR X
.ends

* Black-box entry subcircuit for sky130_fd_sc_hd__o221a_1 abstract view
.subckt sky130_fd_sc_hd__o221a_1 A1 A2 B1 B2 C1 VGND VNB VPB VPWR X
.ends

* Black-box entry subcircuit for sky130_fd_sc_hd__nor2_4 abstract view
.subckt sky130_fd_sc_hd__nor2_4 A B VGND VNB VPB VPWR Y
.ends

* Black-box entry subcircuit for sky130_fd_sc_hd__nand2_1 abstract view
.subckt sky130_fd_sc_hd__nand2_1 A B VGND VNB VPB VPWR Y
.ends

* Black-box entry subcircuit for sky130_fd_sc_hd__or3_1 abstract view
.subckt sky130_fd_sc_hd__or3_1 A B C VGND VNB VPB VPWR X
.ends

* Black-box entry subcircuit for sky130_fd_sc_hd__or2b_2 abstract view
.subckt sky130_fd_sc_hd__or2b_2 A B_N VGND VNB VPB VPWR X
.ends

* Black-box entry subcircuit for sky130_fd_sc_hd__a211o_1 abstract view
.subckt sky130_fd_sc_hd__a211o_1 A1 A2 B1 C1 VGND VNB VPB VPWR X
.ends

* Black-box entry subcircuit for sky130_fd_sc_hd__clkinvlp_2 abstract view
.subckt sky130_fd_sc_hd__clkinvlp_2 A VGND VNB VPB VPWR Y
.ends

* Black-box entry subcircuit for sky130_fd_sc_hd__and2_1 abstract view
.subckt sky130_fd_sc_hd__and2_1 A B VGND VNB VPB VPWR X
.ends

* Black-box entry subcircuit for sky130_fd_sc_hd__inv_6 abstract view
.subckt sky130_fd_sc_hd__inv_6 A VGND VNB VPB VPWR Y
.ends

* Black-box entry subcircuit for sky130_fd_sc_hd__nand3b_4 abstract view
.subckt sky130_fd_sc_hd__nand3b_4 A_N B C VGND VNB VPB VPWR Y
.ends

* Black-box entry subcircuit for sky130_fd_sc_hd__xor2_1 abstract view
.subckt sky130_fd_sc_hd__xor2_1 A B VGND VNB VPB VPWR X
.ends

* Black-box entry subcircuit for sky130_fd_sc_hd__clkinv_4 abstract view
.subckt sky130_fd_sc_hd__clkinv_4 A VGND VNB VPB VPWR Y
.ends

* Black-box entry subcircuit for sky130_fd_sc_hd__or2_2 abstract view
.subckt sky130_fd_sc_hd__or2_2 A B VGND VNB VPB VPWR X
.ends

* Black-box entry subcircuit for sky130_fd_sc_hd__o21a_2 abstract view
.subckt sky130_fd_sc_hd__o21a_2 A1 A2 B1 VGND VNB VPB VPWR X
.ends

* Black-box entry subcircuit for sky130_fd_sc_hd__nor2_1 abstract view
.subckt sky130_fd_sc_hd__nor2_1 A B VGND VNB VPB VPWR Y
.ends

* Black-box entry subcircuit for sky130_fd_sc_hd__or2_1 abstract view
.subckt sky130_fd_sc_hd__or2_1 A B VGND VNB VPB VPWR X
.ends

* Black-box entry subcircuit for sky130_fd_sc_hd__clkbuf_16 abstract view
.subckt sky130_fd_sc_hd__clkbuf_16 A VGND VNB VPB VPWR X
.ends

* Black-box entry subcircuit for sky130_fd_sc_hd__inv_8 abstract view
.subckt sky130_fd_sc_hd__inv_8 A VGND VNB VPB VPWR Y
.ends

* Black-box entry subcircuit for sky130_fd_sc_hd__nor2_2 abstract view
.subckt sky130_fd_sc_hd__nor2_2 A B VGND VNB VPB VPWR Y
.ends

* Black-box entry subcircuit for sky130_fd_sc_hd__dfrtp_4 abstract view
.subckt sky130_fd_sc_hd__dfrtp_4 CLK D RESET_B VGND VNB VPB VPWR Q
.ends

* Black-box entry subcircuit for sky130_fd_sc_hd__nand2_4 abstract view
.subckt sky130_fd_sc_hd__nand2_4 A B VGND VNB VPB VPWR Y
.ends

* Black-box entry subcircuit for sky130_fd_sc_hd__dfrtp_1 abstract view
.subckt sky130_fd_sc_hd__dfrtp_1 CLK D RESET_B VGND VNB VPB VPWR Q
.ends

* Black-box entry subcircuit for sky130_fd_sc_hd__nor4_1 abstract view
.subckt sky130_fd_sc_hd__nor4_1 A B C D VGND VNB VPB VPWR Y
.ends

* Black-box entry subcircuit for sky130_fd_sc_hd__a32o_1 abstract view
.subckt sky130_fd_sc_hd__a32o_1 A1 A2 A3 B1 B2 VGND VNB VPB VPWR X
.ends

* Black-box entry subcircuit for sky130_fd_sc_hd__o21ai_4 abstract view
.subckt sky130_fd_sc_hd__o21ai_4 A1 A2 B1 VGND VNB VPB VPWR Y
.ends

* Black-box entry subcircuit for sky130_fd_sc_hd__nor4b_1 abstract view
.subckt sky130_fd_sc_hd__nor4b_1 A B C D_N VGND VNB VPB VPWR Y
.ends

* Black-box entry subcircuit for sky130_fd_sc_hd__nand4_4 abstract view
.subckt sky130_fd_sc_hd__nand4_4 A B C D VGND VNB VPB VPWR Y
.ends

* Black-box entry subcircuit for sky130_fd_sc_hd__and4bb_4 abstract view
.subckt sky130_fd_sc_hd__and4bb_4 A_N B_N C D VGND VNB VPB VPWR X
.ends

* Black-box entry subcircuit for sky130_fd_sc_hd__and4b_4 abstract view
.subckt sky130_fd_sc_hd__and4b_4 A_N B C D VGND VNB VPB VPWR X
.ends

* Black-box entry subcircuit for sky130_fd_sc_hd__clkbuf_2 abstract view
.subckt sky130_fd_sc_hd__clkbuf_2 A VGND VNB VPB VPWR X
.ends

* Black-box entry subcircuit for sky130_fd_sc_hd__nor2_8 abstract view
.subckt sky130_fd_sc_hd__nor2_8 A B VGND VNB VPB VPWR Y
.ends

* Black-box entry subcircuit for sky130_fd_sc_hd__clkbuf_4 abstract view
.subckt sky130_fd_sc_hd__clkbuf_4 A VGND VNB VPB VPWR X
.ends

* Black-box entry subcircuit for sky130_fd_sc_hd__buf_4 abstract view
.subckt sky130_fd_sc_hd__buf_4 A VGND VNB VPB VPWR X
.ends

* Black-box entry subcircuit for sky130_fd_sc_hd__dfrtp_2 abstract view
.subckt sky130_fd_sc_hd__dfrtp_2 CLK D RESET_B VGND VNB VPB VPWR Q
.ends

* Black-box entry subcircuit for sky130_fd_sc_hd__or4b_4 abstract view
.subckt sky130_fd_sc_hd__or4b_4 A B C D_N VGND VNB VPB VPWR X
.ends

* Black-box entry subcircuit for sky130_fd_sc_hd__or3b_1 abstract view
.subckt sky130_fd_sc_hd__or3b_1 A B C_N VGND VNB VPB VPWR X
.ends

* Black-box entry subcircuit for sky130_fd_sc_hd__and4b_1 abstract view
.subckt sky130_fd_sc_hd__and4b_1 A_N B C D VGND VNB VPB VPWR X
.ends

* Black-box entry subcircuit for sky130_fd_sc_hd__or2_4 abstract view
.subckt sky130_fd_sc_hd__or2_4 A B VGND VNB VPB VPWR X
.ends

* Black-box entry subcircuit for sky130_fd_sc_hd__nand2b_4 abstract view
.subckt sky130_fd_sc_hd__nand2b_4 A_N B VGND VNB VPB VPWR Y
.ends

* Black-box entry subcircuit for sky130_fd_sc_hd__and3_1 abstract view
.subckt sky130_fd_sc_hd__and3_1 A B C VGND VNB VPB VPWR X
.ends

* Black-box entry subcircuit for sky130_fd_sc_hd__or4_4 abstract view
.subckt sky130_fd_sc_hd__or4_4 A B C D VGND VNB VPB VPWR X
.ends

* Black-box entry subcircuit for sky130_fd_sc_hd__o21a_1 abstract view
.subckt sky130_fd_sc_hd__o21a_1 A1 A2 B1 VGND VNB VPB VPWR X
.ends

* Black-box entry subcircuit for sky130_fd_sc_hd__buf_1 abstract view
.subckt sky130_fd_sc_hd__buf_1 A VGND VNB VPB VPWR X
.ends

* Black-box entry subcircuit for sky130_fd_sc_hd__a21boi_1 abstract view
.subckt sky130_fd_sc_hd__a21boi_1 A1 A2 B1_N VGND VNB VPB VPWR Y
.ends

* Black-box entry subcircuit for sky130_fd_sc_hd__a21oi_1 abstract view
.subckt sky130_fd_sc_hd__a21oi_1 A1 A2 B1 VGND VNB VPB VPWR Y
.ends

* Black-box entry subcircuit for sky130_fd_sc_hd__and4_4 abstract view
.subckt sky130_fd_sc_hd__and4_4 A B C D VGND VNB VPB VPWR X
.ends

* Black-box entry subcircuit for sky130_fd_sc_hd__inv_2 abstract view
.subckt sky130_fd_sc_hd__inv_2 A VGND VNB VPB VPWR Y
.ends

* Black-box entry subcircuit for sky130_fd_sc_hd__a31o_1 abstract view
.subckt sky130_fd_sc_hd__a31o_1 A1 A2 A3 B1 VGND VNB VPB VPWR X
.ends

* Black-box entry subcircuit for sky130_fd_sc_hd__diode_2 abstract view
.subckt sky130_fd_sc_hd__diode_2 DIODE VGND VNB VPB VPWR
.ends

.subckt FIFO VGND VPWR clk din[0] din[1] din[2] din[3] din[4] din[5] din[6] din[7]
+ dout[0] dout[1] dout[2] dout[3] dout[4] dout[5] dout[6] dout[7] empty full rd_en
+ reset_n wr_en
XFILLER_0_57_391 VGND VGND VPWR VPWR sky130_fd_sc_hd__fill_1
XFILLER_0_7_81 VPWR VGND VPWR VGND sky130_ef_sc_hd__decap_12
XFILLER_0_40_291 VPWR VGND VPWR VGND sky130_ef_sc_hd__decap_12
XFILLER_0_67_111 VGND VGND VPWR VPWR sky130_fd_sc_hd__fill_1
XTAP_TAPCELL_ROW_43_448 VGND VPWR sky130_fd_sc_hd__tapvpwrvgnd_1
XFILLER_0_63_361 VPWR VGND VPWR VGND sky130_ef_sc_hd__decap_12
XFILLER_0_23_225 VGND VGND VPWR VPWR sky130_fd_sc_hd__decap_8
XFILLER_0_48_15 VPWR VGND VPWR VGND sky130_ef_sc_hd__decap_12
XFILLER_0_3_39 VPWR VGND VPWR VGND sky130_ef_sc_hd__decap_12
XFILLER_0_46_317 VGND VGND VPWR VPWR sky130_fd_sc_hd__decap_3
XFILLER_0_39_380 VPWR VGND VPWR VGND sky130_ef_sc_hd__decap_12
XFILLER_0_13_51 VGND VGND VPWR VPWR sky130_fd_sc_hd__decap_4
X_0985_ clknet_4_7_0_clk _0079_ VGND VGND VPWR VPWR mem\[7\]\[2\] sky130_fd_sc_hd__dfxtp_1
XFILLER_0_54_80 VGND VGND VPWR VPWR sky130_fd_sc_hd__decap_4
XFILLER_0_49_111 VGND VGND VPWR VPWR sky130_fd_sc_hd__fill_1
XFILLER_0_52_309 VGND VGND VPWR VPWR sky130_fd_sc_hd__decap_4
XFILLER_0_49_177 VGND VGND VPWR VPWR sky130_fd_sc_hd__decap_3
XFILLER_0_45_361 VPWR VGND VPWR VGND sky130_ef_sc_hd__decap_12
XTAP_TAPCELL_ROW_40_429 VGND VPWR sky130_fd_sc_hd__tapvpwrvgnd_1
XTAP_TAPCELL_ROW_56_540 VGND VPWR sky130_fd_sc_hd__tapvpwrvgnd_1
XTAP_TAPCELL_ROW_5_184 VGND VPWR sky130_fd_sc_hd__tapvpwrvgnd_1
XFILLER_0_18_29 VGND VGND VPWR VPWR sky130_fd_sc_hd__decap_6
XFILLER_0_59_47 VGND VGND VPWR VPWR sky130_fd_sc_hd__fill_1
XFILLER_0_55_169 VPWR VGND VPWR VGND sky130_ef_sc_hd__decap_12
X_0770_ net165 _0292_ _0379_ VGND VGND VPWR VPWR _0380_ sky130_fd_sc_hd__mux2_1
XFILLER_0_11_217 VGND VGND VPWR VPWR sky130_fd_sc_hd__decap_6
XFILLER_0_59_69 VGND VGND VPWR VPWR sky130_fd_sc_hd__decap_4
X_0968_ clknet_4_13_0_clk _0062_ VGND VGND VPWR VPWR mem\[5\]\[1\] sky130_fd_sc_hd__dfxtp_1
Xclkbuf_4_12_0_clk clknet_0_clk VGND VGND VPWR VPWR clknet_4_12_0_clk sky130_fd_sc_hd__clkbuf_8
XFILLER_0_34_309 VGND VGND VPWR VPWR sky130_fd_sc_hd__decap_4
XFILLER_0_27_361 VGND VGND VPWR VPWR sky130_fd_sc_hd__decap_6
XFILLER_0_6_233 VPWR VGND VPWR VGND sky130_ef_sc_hd__decap_12
XFILLER_0_6_277 VPWR VGND VPWR VGND sky130_ef_sc_hd__decap_12
X_0899_ _0448_ VGND VGND VPWR VPWR _0145_ sky130_fd_sc_hd__clkbuf_1
XFILLER_0_40_82 VGND VGND VPWR VPWR sky130_fd_sc_hd__fill_2
XTAP_TAPCELL_ROW_2_165 VGND VPWR sky130_fd_sc_hd__tapvpwrvgnd_1
XTAP_TAPCELL_ROW_53_521 VGND VPWR sky130_fd_sc_hd__tapvpwrvgnd_1
XFILLER_0_37_125 VPWR VGND VPWR VGND sky130_ef_sc_hd__decap_12
XFILLER_0_60_172 VPWR VGND VPWR VGND sky130_ef_sc_hd__decap_12
XFILLER_0_52_128 VPWR VGND VPWR VGND sky130_ef_sc_hd__decap_12
XFILLER_0_37_169 VPWR VGND VPWR VGND sky130_ef_sc_hd__decap_12
XFILLER_0_61_15 VPWR VGND VPWR VGND sky130_ef_sc_hd__decap_12
XFILLER_0_0_29 VPWR VGND VPWR VGND sky130_ef_sc_hd__decap_12
XFILLER_0_56_401 VGND VGND VPWR VPWR sky130_fd_sc_hd__decap_4
X_0822_ _0407_ VGND VGND VPWR VPWR _0109_ sky130_fd_sc_hd__clkbuf_1
XFILLER_0_28_147 VGND VGND VPWR VPWR sky130_fd_sc_hd__fill_1
XFILLER_0_9_27 VPWR VGND VPWR VGND sky130_ef_sc_hd__decap_12
XFILLER_0_16_309 VPWR VGND VPWR VGND sky130_ef_sc_hd__decap_12
X_0684_ _0299_ net114 _0329_ VGND VGND VPWR VPWR _0332_ sky130_fd_sc_hd__mux2_1
X_0753_ _0370_ VGND VGND VPWR VPWR _0077_ sky130_fd_sc_hd__clkbuf_1
XFILLER_0_3_225 VPWR VGND VPWR VGND sky130_ef_sc_hd__decap_12
XFILLER_0_10_41 VPWR VGND VPWR VGND sky130_ef_sc_hd__decap_12
XFILLER_0_10_85 VPWR VGND VPWR VGND sky130_ef_sc_hd__decap_12
XFILLER_0_66_209 VPWR VGND VPWR VGND sky130_ef_sc_hd__decap_12
XFILLER_0_42_161 VGND VGND VPWR VPWR sky130_fd_sc_hd__fill_1
XFILLER_0_19_169 VGND VGND VPWR VPWR sky130_fd_sc_hd__decap_6
XFILLER_0_38_401 VGND VGND VPWR VPWR sky130_fd_sc_hd__decap_4
XTAP_TAPCELL_ROW_13_237 VGND VPWR sky130_fd_sc_hd__tapvpwrvgnd_1
XFILLER_0_25_106 VGND VGND VPWR VPWR sky130_fd_sc_hd__decap_6
XFILLER_0_33_194 VPWR VGND VPWR VGND sky130_ef_sc_hd__decap_12
XTAP_TAPCELL_ROW_21_292 VGND VPWR sky130_fd_sc_hd__tapvpwrvgnd_1
XFILLER_0_21_312 VGND VGND VPWR VPWR sky130_fd_sc_hd__fill_1
XFILLER_0_56_59 VPWR VGND VPWR VGND sky130_ef_sc_hd__decap_12
XFILLER_0_56_37 VGND VGND VPWR VPWR sky130_fd_sc_hd__decap_6
XFILLER_0_56_26 VGND VGND VPWR VPWR sky130_fd_sc_hd__fill_2
XFILLER_0_48_209 VPWR VGND VPWR VGND sky130_ef_sc_hd__decap_12
X_1021_ clknet_4_2_0_clk _0115_ VGND VGND VPWR VPWR mem\[11\]\[6\] sky130_fd_sc_hd__dfxtp_1
XFILLER_0_56_253 VPWR VGND VPWR VGND sky130_ef_sc_hd__decap_12
X_0805_ _0398_ VGND VGND VPWR VPWR _0101_ sky130_fd_sc_hd__clkbuf_1
XFILLER_0_21_51 VGND VGND VPWR VPWR sky130_fd_sc_hd__decap_4
X_0667_ _0299_ net138 _0320_ VGND VGND VPWR VPWR _0323_ sky130_fd_sc_hd__mux2_1
X_0736_ _0361_ VGND VGND VPWR VPWR _0069_ sky130_fd_sc_hd__clkbuf_1
XFILLER_0_12_345 VPWR VGND VPWR VGND sky130_ef_sc_hd__decap_12
XFILLER_0_12_389 VPWR VGND VPWR VGND sky130_ef_sc_hd__decap_12
X_0598_ count\[1\] _0275_ _0271_ VGND VGND VPWR VPWR _0276_ sky130_fd_sc_hd__mux2_1
XFILLER_0_46_81 VGND VGND VPWR VPWR sky130_fd_sc_hd__decap_3
XFILLER_0_34_3 VGND VGND VPWR VPWR sky130_fd_sc_hd__decap_8
XTAP_TAPCELL_ROW_35_395 VGND VPWR sky130_fd_sc_hd__tapvpwrvgnd_1
XFILLER_0_62_289 VPWR VGND VPWR VGND sky130_ef_sc_hd__decap_12
XFILLER_0_62_245 VGND VGND VPWR VPWR sky130_fd_sc_hd__decap_6
XFILLER_0_30_153 VPWR VGND VPWR VGND sky130_ef_sc_hd__decap_12
XFILLER_0_7_361 VPWR VGND VPWR VGND sky130_ef_sc_hd__decap_12
XTAP_TAPCELL_ROW_10_218 VGND VPWR sky130_fd_sc_hd__tapvpwrvgnd_1
XFILLER_0_22_109 VPWR VGND VPWR VGND sky130_ef_sc_hd__decap_12
Xhold41 mem\[8\]\[4\] VGND VGND VPWR VPWR net77 sky130_fd_sc_hd__dlygate4sd3_1
Xhold30 mem\[4\]\[0\] VGND VGND VPWR VPWR net66 sky130_fd_sc_hd__dlygate4sd3_1
XFILLER_0_30_197 VPWR VGND VPWR VGND sky130_ef_sc_hd__decap_12
Xhold52 mem\[12\]\[3\] VGND VGND VPWR VPWR net88 sky130_fd_sc_hd__dlygate4sd3_1
Xhold63 count\[0\] VGND VGND VPWR VPWR net99 sky130_fd_sc_hd__dlygate4sd3_1
Xhold74 mem\[3\]\[5\] VGND VGND VPWR VPWR net110 sky130_fd_sc_hd__dlygate4sd3_1
XFILLER_0_26_29 VPWR VGND VPWR VGND sky130_ef_sc_hd__decap_12
XFILLER_0_42_39 VPWR VGND VPWR VGND sky130_ef_sc_hd__decap_12
Xhold85 mem\[14\]\[6\] VGND VGND VPWR VPWR net121 sky130_fd_sc_hd__dlygate4sd3_1
Xhold96 mem\[5\]\[3\] VGND VGND VPWR VPWR net132 sky130_fd_sc_hd__dlygate4sd3_1
XFILLER_0_53_289 VGND VGND VPWR VPWR sky130_fd_sc_hd__fill_1
XFILLER_0_53_278 VGND VGND VPWR VPWR sky130_fd_sc_hd__fill_2
XFILLER_0_53_223 VGND VGND VPWR VPWR sky130_fd_sc_hd__fill_1
XFILLER_0_38_297 VGND VGND VPWR VPWR sky130_fd_sc_hd__decap_8
XFILLER_0_67_69 VPWR VGND VPWR VGND sky130_ef_sc_hd__decap_12
X_0452_ count\[1\] count\[0\] count\[3\] count\[2\] VGND VGND VPWR VPWR _0149_ sky130_fd_sc_hd__or4_1
X_0521_ mem\[11\]\[3\] _0162_ net33 mem\[2\]\[3\] _0212_ VGND VGND VPWR VPWR _0213_
+ sky130_fd_sc_hd__a221o_1
XFILLER_0_29_242 VPWR VGND VPWR VGND sky130_ef_sc_hd__decap_12
X_1004_ clknet_4_0_0_clk _0098_ VGND VGND VPWR VPWR mem\[9\]\[5\] sky130_fd_sc_hd__dfxtp_1
X_0719_ net98 _0297_ _0350_ VGND VGND VPWR VPWR _0352_ sky130_fd_sc_hd__mux2_1
XFILLER_0_12_197 VGND VGND VPWR VPWR sky130_fd_sc_hd__decap_6
XFILLER_0_67_337 VPWR VGND VPWR VGND sky130_ef_sc_hd__decap_12
XFILLER_0_35_223 VGND VGND VPWR VPWR sky130_fd_sc_hd__fill_1
XTAP_TAPCELL_ROW_23_310 VGND VPWR sky130_fd_sc_hd__tapvpwrvgnd_1
Xoutput20 net20 VGND VGND VPWR VPWR empty sky130_fd_sc_hd__buf_2
XFILLER_0_53_27 VPWR VGND VPWR VGND sky130_ef_sc_hd__decap_12
XFILLER_0_37_39 VPWR VGND VPWR VGND sky130_ef_sc_hd__decap_12
XTAP_TAPCELL_ROW_46_468 VGND VPWR sky130_fd_sc_hd__tapvpwrvgnd_1
XFILLER_0_41_259 VGND VGND VPWR VPWR sky130_fd_sc_hd__fill_1
X_0504_ net44 _0152_ _0197_ VGND VGND VPWR VPWR _0001_ sky130_fd_sc_hd__a21o_1
XFILLER_0_49_337 VPWR VGND VPWR VGND sky130_ef_sc_hd__decap_12
XFILLER_0_64_307 VGND VGND VPWR VPWR sky130_fd_sc_hd__fill_1
XFILLER_0_17_234 VGND VGND VPWR VPWR sky130_fd_sc_hd__decap_4
XFILLER_0_7_93 VPWR VGND VPWR VGND sky130_ef_sc_hd__decap_12
XFILLER_0_67_167 VGND VGND VPWR VPWR sky130_fd_sc_hd__fill_1
XTAP_TAPCELL_ROW_43_449 VGND VPWR sky130_fd_sc_hd__tapvpwrvgnd_1
XFILLER_0_63_373 VPWR VGND VPWR VGND sky130_ef_sc_hd__decap_12
XFILLER_0_2_109 VPWR VGND VPWR VGND sky130_ef_sc_hd__decap_12
XFILLER_0_23_215 VGND VGND VPWR VPWR sky130_fd_sc_hd__decap_8
XFILLER_0_48_27 VGND VGND VPWR VPWR sky130_fd_sc_hd__fill_1
XFILLER_0_31_281 VPWR VGND VPWR VGND sky130_ef_sc_hd__decap_12
XFILLER_0_64_15 VPWR VGND VPWR VGND sky130_ef_sc_hd__decap_12
XTAP_TAPCELL_ROW_59_560 VGND VPWR sky130_fd_sc_hd__tapvpwrvgnd_1
X_0984_ clknet_4_13_0_clk _0078_ VGND VGND VPWR VPWR mem\[7\]\[1\] sky130_fd_sc_hd__dfxtp_1
XFILLER_0_58_189 VGND VGND VPWR VPWR sky130_fd_sc_hd__fill_1
XFILLER_0_38_93 VGND VGND VPWR VPWR sky130_fd_sc_hd__fill_1
XFILLER_0_49_156 VGND VGND VPWR VPWR sky130_fd_sc_hd__decap_3
XFILLER_0_9_220 VGND VGND VPWR VPWR sky130_fd_sc_hd__decap_4
XFILLER_0_60_365 VPWR VGND VPWR VGND sky130_ef_sc_hd__decap_12
XFILLER_0_60_321 VPWR VGND VPWR VGND sky130_ef_sc_hd__decap_12
XFILLER_0_45_373 VPWR VGND VPWR VGND sky130_ef_sc_hd__decap_12
XTAP_TAPCELL_ROW_56_541 VGND VPWR sky130_fd_sc_hd__tapvpwrvgnd_1
XTAP_TAPCELL_ROW_5_185 VGND VPWR sky130_fd_sc_hd__tapvpwrvgnd_1
XFILLER_0_28_307 VGND VGND VPWR VPWR sky130_fd_sc_hd__fill_1
XFILLER_0_63_181 VPWR VGND VPWR VGND sky130_ef_sc_hd__decap_12
XFILLER_0_59_15 VPWR VGND VPWR VGND sky130_ef_sc_hd__decap_12
XFILLER_0_36_395 VGND VGND VPWR VPWR sky130_fd_sc_hd__decap_6
X_0967_ clknet_4_4_0_clk _0061_ VGND VGND VPWR VPWR mem\[5\]\[0\] sky130_fd_sc_hd__dfxtp_1
XFILLER_0_42_365 VPWR VGND VPWR VGND sky130_ef_sc_hd__decap_12
XFILLER_0_40_61 VGND VGND VPWR VPWR sky130_fd_sc_hd__fill_2
XFILLER_0_6_245 VGND VGND VPWR VPWR sky130_fd_sc_hd__decap_6
XFILLER_0_6_289 VPWR VGND VPWR VGND sky130_ef_sc_hd__decap_12
XFILLER_0_64_3 VPWR VGND VPWR VGND sky130_ef_sc_hd__decap_12
XFILLER_0_49_70 VGND VGND VPWR VPWR sky130_fd_sc_hd__fill_1
X_0898_ net120 net5 _0443_ VGND VGND VPWR VPWR _0448_ sky130_fd_sc_hd__mux2_1
XFILLER_0_10_251 VGND VGND VPWR VPWR sky130_fd_sc_hd__fill_1
XPHY_EDGE_ROW_12_Right_12 VGND VGND VPWR VPWR sky130_fd_sc_hd__decap_3
XFILLER_0_4_83 VGND VGND VPWR VPWR sky130_fd_sc_hd__fill_1
XPHY_EDGE_ROW_21_Right_21 VGND VGND VPWR VPWR sky130_fd_sc_hd__decap_3
XTAP_TAPCELL_ROW_53_522 VGND VPWR sky130_fd_sc_hd__tapvpwrvgnd_1
XFILLER_0_37_137 VPWR VGND VPWR VGND sky130_ef_sc_hd__decap_12
XFILLER_0_60_184 VPWR VGND VPWR VGND sky130_ef_sc_hd__decap_12
XFILLER_0_45_181 VPWR VGND VPWR VGND sky130_ef_sc_hd__decap_12
XPHY_EDGE_ROW_30_Right_30 VGND VGND VPWR VPWR sky130_fd_sc_hd__decap_3
XFILLER_0_29_29 VPWR VGND VPWR VGND sky130_ef_sc_hd__decap_12
XFILLER_0_61_27 VPWR VGND VPWR VGND sky130_ef_sc_hd__decap_12
XTAP_TAPCELL_ROW_16_257 VGND VPWR sky130_fd_sc_hd__tapvpwrvgnd_1
X_0752_ net59 _0292_ _0369_ VGND VGND VPWR VPWR _0370_ sky130_fd_sc_hd__mux2_1
X_0821_ mem\[11\]\[0\] net1 _0406_ VGND VGND VPWR VPWR _0407_ sky130_fd_sc_hd__mux2_1
XFILLER_0_9_39 VPWR VGND VPWR VGND sky130_ef_sc_hd__decap_12
X_0683_ _0331_ VGND VGND VPWR VPWR _0046_ sky130_fd_sc_hd__clkbuf_1
XFILLER_0_3_237 VPWR VGND VPWR VGND sky130_ef_sc_hd__decap_12
XFILLER_0_10_53 VGND VGND VPWR VPWR sky130_fd_sc_hd__decap_6
XFILLER_0_10_97 VPWR VGND VPWR VGND sky130_ef_sc_hd__decap_12
XFILLER_0_24_365 VGND VGND VPWR VPWR sky130_fd_sc_hd__decap_6
XTAP_TAPCELL_ROW_67_614 VGND VPWR sky130_fd_sc_hd__tapvpwrvgnd_1
XFILLER_0_19_51 VGND VGND VPWR VPWR sky130_fd_sc_hd__decap_4
XFILLER_0_42_195 VGND VGND VPWR VPWR sky130_fd_sc_hd__fill_1
XTAP_TAPCELL_ROW_13_238 VGND VPWR sky130_fd_sc_hd__tapvpwrvgnd_1
XTAP_TAPCELL_ROW_21_293 VGND VPWR sky130_fd_sc_hd__tapvpwrvgnd_1
Xclkbuf_4_11_0_clk clknet_0_clk VGND VGND VPWR VPWR clknet_4_11_0_clk sky130_fd_sc_hd__clkbuf_8
X_1020_ clknet_4_0_0_clk _0114_ VGND VGND VPWR VPWR mem\[11\]\[5\] sky130_fd_sc_hd__dfxtp_1
XFILLER_0_56_265 VGND VGND VPWR VPWR sky130_fd_sc_hd__fill_2
XFILLER_0_56_221 VGND VGND VPWR VPWR sky130_fd_sc_hd__decap_4
XPHY_EDGE_ROW_28_Left_97 VGND VGND VPWR VPWR sky130_fd_sc_hd__decap_3
X_0735_ net78 _0292_ _0360_ VGND VGND VPWR VPWR _0361_ sky130_fd_sc_hd__mux2_1
X_0804_ net80 net1 _0397_ VGND VGND VPWR VPWR _0398_ sky130_fd_sc_hd__mux2_1
XFILLER_0_12_302 VGND VGND VPWR VPWR sky130_fd_sc_hd__decap_6
XFILLER_0_16_118 VPWR VGND VPWR VGND sky130_ef_sc_hd__decap_12
XFILLER_0_24_195 VGND VGND VPWR VPWR sky130_fd_sc_hd__fill_1
XFILLER_0_12_357 VGND VGND VPWR VPWR sky130_fd_sc_hd__decap_6
X_0666_ _0322_ VGND VGND VPWR VPWR _0038_ sky130_fd_sc_hd__clkbuf_1
X_0597_ count\[0\] _0274_ VGND VGND VPWR VPWR _0275_ sky130_fd_sc_hd__xnor2_1
XFILLER_0_1_51 VGND VGND VPWR VPWR sky130_fd_sc_hd__decap_4
XFILLER_0_27_3 VPWR VGND VPWR VGND sky130_ef_sc_hd__decap_12
XFILLER_0_47_298 VPWR VGND VPWR VGND sky130_ef_sc_hd__decap_12
XTAP_TAPCELL_ROW_35_396 VGND VPWR sky130_fd_sc_hd__tapvpwrvgnd_1
XFILLER_0_7_373 VPWR VGND VPWR VGND sky130_ef_sc_hd__decap_12
XTAP_TAPCELL_ROW_10_219 VGND VPWR sky130_fd_sc_hd__tapvpwrvgnd_1
XFILLER_0_30_165 VPWR VGND VPWR VGND sky130_ef_sc_hd__decap_12
XFILLER_0_15_162 VGND VGND VPWR VPWR sky130_fd_sc_hd__decap_6
Xhold42 mem\[6\]\[0\] VGND VGND VPWR VPWR net78 sky130_fd_sc_hd__dlygate4sd3_1
Xhold53 mem\[8\]\[7\] VGND VGND VPWR VPWR net89 sky130_fd_sc_hd__dlygate4sd3_1
Xhold31 mem\[13\]\[7\] VGND VGND VPWR VPWR net67 sky130_fd_sc_hd__dlygate4sd3_1
Xhold64 mem\[14\]\[3\] VGND VGND VPWR VPWR net100 sky130_fd_sc_hd__dlygate4sd3_1
Xhold75 mem\[14\]\[2\] VGND VGND VPWR VPWR net111 sky130_fd_sc_hd__dlygate4sd3_1
Xhold97 mem\[1\]\[5\] VGND VGND VPWR VPWR net133 sky130_fd_sc_hd__dlygate4sd3_1
Xhold20 mem\[8\]\[5\] VGND VGND VPWR VPWR net56 sky130_fd_sc_hd__dlygate4sd3_1
Xhold86 mem\[0\]\[3\] VGND VGND VPWR VPWR net122 sky130_fd_sc_hd__dlygate4sd3_1
XFILLER_0_42_29 VGND VGND VPWR VPWR sky130_fd_sc_hd__fill_2
XFILLER_0_38_221 VGND VGND VPWR VPWR sky130_fd_sc_hd__fill_2
XTAP_TAPCELL_ROW_26_330 VGND VPWR sky130_fd_sc_hd__tapvpwrvgnd_1
XFILLER_0_67_15 VPWR VGND VPWR VGND sky130_ef_sc_hd__decap_12
XFILLER_0_6_29 VPWR VGND VPWR VGND sky130_ef_sc_hd__decap_12
X_0520_ mem\[10\]\[3\] _0179_ _0172_ mem\[6\]\[3\] VGND VGND VPWR VPWR _0212_ sky130_fd_sc_hd__a22o_1
XFILLER_0_21_154 VPWR VGND VPWR VGND sky130_ef_sc_hd__decap_12
X_1003_ clknet_4_5_0_clk _0097_ VGND VGND VPWR VPWR mem\[9\]\[4\] sky130_fd_sc_hd__dfxtp_1
XTAP_TAPCELL_ROW_49_488 VGND VPWR sky130_fd_sc_hd__tapvpwrvgnd_1
XFILLER_0_16_41 VGND VGND VPWR VPWR sky130_fd_sc_hd__fill_1
XFILLER_0_16_85 VGND VGND VPWR VPWR sky130_fd_sc_hd__fill_2
XFILLER_0_29_265 VPWR VGND VPWR VGND sky130_ef_sc_hd__decap_12
XFILLER_0_29_254 VGND VGND VPWR VPWR sky130_fd_sc_hd__fill_2
XFILLER_0_29_221 VGND VGND VPWR VPWR sky130_fd_sc_hd__decap_3
XFILLER_0_8_159 VPWR VGND VPWR VGND sky130_ef_sc_hd__decap_12
X_0718_ _0351_ VGND VGND VPWR VPWR _0061_ sky130_fd_sc_hd__clkbuf_1
XFILLER_0_44_279 VGND VGND VPWR VPWR sky130_fd_sc_hd__decap_4
XFILLER_0_4_365 VPWR VGND VPWR VGND sky130_ef_sc_hd__decap_12
XFILLER_0_4_321 VPWR VGND VPWR VGND sky130_ef_sc_hd__decap_12
XPHY_EDGE_ROW_6_Right_6 VGND VGND VPWR VPWR sky130_fd_sc_hd__decap_3
X_0649_ _0313_ VGND VGND VPWR VPWR _0030_ sky130_fd_sc_hd__clkbuf_1
XFILLER_0_67_349 VPWR VGND VPWR VGND sky130_ef_sc_hd__decap_12
XFILLER_0_67_305 VPWR VGND VPWR VGND sky130_ef_sc_hd__decap_12
XTAP_TAPCELL_ROW_23_311 VGND VPWR sky130_fd_sc_hd__tapvpwrvgnd_1
Xoutput21 net21 VGND VGND VPWR VPWR full sky130_fd_sc_hd__buf_2
XFILLER_0_58_305 VGND VGND VPWR VPWR sky130_fd_sc_hd__decap_3
XFILLER_0_53_39 VPWR VGND VPWR VGND sky130_ef_sc_hd__decap_12
XPHY_EDGE_ROW_59_Right_59 VGND VGND VPWR VPWR sky130_fd_sc_hd__decap_3
XTAP_TAPCELL_ROW_46_469 VGND VPWR sky130_fd_sc_hd__tapvpwrvgnd_1
XFILLER_0_1_335 VGND VGND VPWR VPWR sky130_fd_sc_hd__fill_1
XPHY_EDGE_ROW_68_Right_68 VGND VGND VPWR VPWR sky130_fd_sc_hd__decap_3
X_0503_ mem\[0\]\[1\] _0157_ _0189_ _0196_ _0186_ VGND VGND VPWR VPWR _0197_ sky130_fd_sc_hd__o221a_1
XFILLER_0_27_51 VGND VGND VPWR VPWR sky130_fd_sc_hd__decap_4
XFILLER_0_49_349 VPWR VGND VPWR VGND sky130_ef_sc_hd__decap_12
XFILLER_0_49_305 VPWR VGND VPWR VGND sky130_ef_sc_hd__decap_12
XFILLER_0_57_393 VPWR VGND VPWR VGND sky130_ef_sc_hd__decap_12
XFILLER_0_32_227 VGND VGND VPWR VPWR sky130_fd_sc_hd__fill_1
XFILLER_0_4_195 VGND VGND VPWR VPWR sky130_fd_sc_hd__fill_1
XPHY_EDGE_ROW_15_Left_84 VGND VGND VPWR VPWR sky130_fd_sc_hd__decap_3
XFILLER_0_67_113 VPWR VGND VPWR VGND sky130_ef_sc_hd__decap_12
XFILLER_0_63_385 VGND VGND VPWR VPWR sky130_fd_sc_hd__decap_6
XFILLER_0_16_290 VPWR VGND VPWR VGND sky130_ef_sc_hd__decap_12
XFILLER_0_23_249 VGND VGND VPWR VPWR sky130_fd_sc_hd__decap_4
XFILLER_0_64_27 VGND VGND VPWR VPWR sky130_fd_sc_hd__fill_1
XFILLER_0_31_293 VPWR VGND VPWR VGND sky130_ef_sc_hd__decap_12
XTAP_TAPCELL_ROW_59_561 VGND VPWR sky130_fd_sc_hd__tapvpwrvgnd_1
XFILLER_0_54_363 VGND VGND VPWR VPWR sky130_fd_sc_hd__fill_1
X_0983_ clknet_4_12_0_clk _0077_ VGND VGND VPWR VPWR mem\[7\]\[0\] sky130_fd_sc_hd__dfxtp_1
XFILLER_0_39_393 VPWR VGND VPWR VGND sky130_ef_sc_hd__decap_12
XFILLER_0_49_113 VPWR VGND VPWR VGND sky130_ef_sc_hd__decap_12
XFILLER_0_60_377 VPWR VGND VPWR VGND sky130_ef_sc_hd__decap_12
XFILLER_0_60_333 VPWR VGND VPWR VGND sky130_ef_sc_hd__decap_12
XFILLER_0_45_385 VGND VGND VPWR VPWR sky130_fd_sc_hd__decap_6
XPHY_EDGE_ROW_0_Left_69 VGND VGND VPWR VPWR sky130_fd_sc_hd__decap_3
XTAP_TAPCELL_ROW_56_542 VGND VPWR sky130_fd_sc_hd__tapvpwrvgnd_1
XTAP_TAPCELL_ROW_5_186 VGND VPWR sky130_fd_sc_hd__tapvpwrvgnd_1
XFILLER_0_36_363 VGND VGND VPWR VPWR sky130_fd_sc_hd__fill_1
XFILLER_0_63_193 VPWR VGND VPWR VGND sky130_ef_sc_hd__decap_12
XFILLER_0_59_27 VPWR VGND VPWR VGND sky130_ef_sc_hd__decap_12
XFILLER_0_46_149 VPWR VGND VPWR VGND sky130_ef_sc_hd__decap_12
XFILLER_0_42_377 VPWR VGND VPWR VGND sky130_ef_sc_hd__decap_12
XFILLER_0_42_322 VGND VGND VPWR VPWR sky130_fd_sc_hd__fill_2
X_0966_ clknet_4_9_0_clk _0060_ VGND VGND VPWR VPWR mem\[4\]\[7\] sky130_fd_sc_hd__dfxtp_1
X_0897_ _0447_ VGND VGND VPWR VPWR _0144_ sky130_fd_sc_hd__clkbuf_1
XFILLER_0_57_3 VPWR VGND VPWR VGND sky130_ef_sc_hd__decap_12
XFILLER_0_65_81 VPWR VGND VPWR VGND sky130_ef_sc_hd__decap_12
XFILLER_0_37_149 VPWR VGND VPWR VGND sky130_ef_sc_hd__decap_12
XFILLER_0_37_105 VGND VGND VPWR VPWR sky130_fd_sc_hd__decap_6
XPHY_EDGE_ROW_36_Left_105 VGND VGND VPWR VPWR sky130_fd_sc_hd__decap_3
XFILLER_0_33_311 VGND VGND VPWR VPWR sky130_fd_sc_hd__fill_1
XFILLER_0_18_363 VGND VGND VPWR VPWR sky130_fd_sc_hd__fill_1
XFILLER_0_60_141 VGND VGND VPWR VPWR sky130_fd_sc_hd__decap_6
XFILLER_0_45_193 VPWR VGND VPWR VGND sky130_ef_sc_hd__decap_12
XPHY_EDGE_ROW_45_Left_114 VGND VGND VPWR VPWR sky130_fd_sc_hd__decap_3
XFILLER_0_61_39 VPWR VGND VPWR VGND sky130_ef_sc_hd__decap_12
XTAP_TAPCELL_ROW_16_258 VGND VPWR sky130_fd_sc_hd__tapvpwrvgnd_1
XPHY_EDGE_ROW_54_Left_123 VGND VGND VPWR VPWR sky130_fd_sc_hd__decap_3
XFILLER_0_51_130 VPWR VGND VPWR VGND sky130_ef_sc_hd__decap_12
X_0751_ _0259_ _0339_ VGND VGND VPWR VPWR _0369_ sky130_fd_sc_hd__nor2_4
X_0820_ _0259_ _0378_ VGND VGND VPWR VPWR _0406_ sky130_fd_sc_hd__nor2_4
XFILLER_0_3_249 VPWR VGND VPWR VGND sky130_ef_sc_hd__decap_12
XFILLER_0_3_205 VPWR VGND VPWR VGND sky130_ef_sc_hd__decap_12
XPHY_EDGE_ROW_63_Left_132 VGND VGND VPWR VPWR sky130_fd_sc_hd__decap_3
X_0682_ _0297_ net175 _0329_ VGND VGND VPWR VPWR _0331_ sky130_fd_sc_hd__mux2_1
XFILLER_0_19_41 VGND VGND VPWR VPWR sky130_fd_sc_hd__fill_1
XTAP_TAPCELL_ROW_67_615 VGND VPWR sky130_fd_sc_hd__tapvpwrvgnd_1
XFILLER_0_51_50 VGND VGND VPWR VPWR sky130_fd_sc_hd__decap_6
XFILLER_0_19_138 VPWR VGND VPWR VGND sky130_ef_sc_hd__decap_12
XFILLER_0_42_130 VGND VGND VPWR VPWR sky130_fd_sc_hd__fill_1
X_0949_ clknet_4_3_0_clk _0043_ VGND VGND VPWR VPWR mem\[2\]\[6\] sky130_fd_sc_hd__dfxtp_1
XTAP_TAPCELL_ROW_13_239 VGND VPWR sky130_fd_sc_hd__tapvpwrvgnd_1
XFILLER_0_18_171 VGND VGND VPWR VPWR sky130_fd_sc_hd__fill_1
XTAP_TAPCELL_ROW_21_294 VGND VPWR sky130_fd_sc_hd__tapvpwrvgnd_1
XTAP_TAPCELL_ROW_29_350 VGND VPWR sky130_fd_sc_hd__tapvpwrvgnd_1
XPHY_EDGE_ROW_3_Left_72 VGND VGND VPWR VPWR sky130_fd_sc_hd__decap_3
X_0734_ _0359_ _0339_ VGND VGND VPWR VPWR _0360_ sky130_fd_sc_hd__nor2_4
X_0803_ _0359_ _0378_ VGND VGND VPWR VPWR _0397_ sky130_fd_sc_hd__nor2_4
X_0665_ _0297_ net156 _0320_ VGND VGND VPWR VPWR _0322_ sky130_fd_sc_hd__mux2_1
XFILLER_0_24_141 VGND VGND VPWR VPWR sky130_fd_sc_hd__fill_1
X_0596_ _0272_ _0273_ VGND VGND VPWR VPWR _0274_ sky130_fd_sc_hd__nand2_1
XFILLER_0_7_385 VGND VGND VPWR VPWR sky130_fd_sc_hd__decap_6
XFILLER_0_30_177 VPWR VGND VPWR VGND sky130_ef_sc_hd__decap_12
XFILLER_0_11_391 VGND VGND VPWR VPWR sky130_fd_sc_hd__fill_1
Xhold43 mem\[4\]\[4\] VGND VGND VPWR VPWR net79 sky130_fd_sc_hd__dlygate4sd3_1