*SPEF "ieee 1481-1999"
*DESIGN "FIFO"
*DATE "00:26:29 Monday February 16, 2026"
*VENDOR "The OpenROAD Project"
*PROGRAM "OpenROAD"
*VERSION "b16bda7e82721d10566ff7e2b68f1ff0be9f9e38"
*DESIGN_FLOW "NAME_SCOPE LOCAL" "PIN_CAP NONE"
*DIVIDER /
*DELIMITER :
*BUS_DELIMITER []
*T_UNIT 1 NS
*C_UNIT 1 PF
*R_UNIT 1 OHM
*L_UNIT 1 HENRY

*NAME_MAP
*3 clk
*4 din[0]
*5 din[1]
*6 din[2]
*7 din[3]
*8 din[4]
*9 din[5]
*10 din[6]
*11 din[7]
*12 dout[0]
*13 dout[1]
*14 dout[2]
*15 dout[3]
*16 dout[4]
*17 dout[5]
*18 dout[6]
*19 dout[7]
*20 empty
*21 full
*22 rd_en
*23 reset_n
*24 wr_en
*25 _0000_
*26 _0001_
*27 _0002_
*28 _0003_
*29 _0004_
*30 _0005_
*31 _0006_
*32 _0007_
*33 _0008_
*34 _0009_
*35 _0010_
*36 _0011_
*37 _0012_
*38 _0013_
*39 _0014_
*40 _0015_
*41 _0016_
*42 _0017_
*43 _0018_
*44 _0019_
*45 _0020_
*46 _0021_
*47 _0022_
*48 _0023_
*49 _0024_
*50 _0025_
*51 _0026_
*52 _0027_
*53 _0028_
*54 _0029_
*55 _0030_
*56 _0031_
*57 _0032_
*58 _0033_
*59 _0034_
*60 _0035_
*61 _0036_
*62 _0037_
*63 _0038_
*64 _0039_
*65 _0040_
*66 _0041_
*67 _0042_
*68 _0043_
*69 _0044_
*70 _0045_
*71 _0046_
*72 _0047_
*73 _0048_
*74 _0049_
*75 _0050_
*76 _0051_
*77 _0052_
*78 _0053_
*79 _0054_
*80 _0055_
*81 _0056_
*82 _0057_
*83 _0058_
*84 _0059_
*85 _0060_
*86 _0061_
*87 _0062_
*88 _0063_
*89 _0064_
*90 _0065_
*91 _0066_
*92 _0067_
*93 _0068_
*94 _0069_
*95 _0070_
*96 _0071_
*97 _0072_
*98 _0073_
*99 _0074_
*100 _0075_
*101 _0076_
*102 _0077_
*103 _0078_
*104 _0079_
*105 _0080_
*106 _0081_
*107 _0082_
*108 _0083_
*109 _0084_
*110 _0085_
*111 _0086_
*112 _0087_
*113 _0088_
*114 _0089_
*115 _0090_
*116 _0091_
*117 _0092_
*118 _0093_
*119 _0094_
*120 _0095_
*121 _0096_
*122 _0097_
*123 _0098_
*124 _0099_
*125 _0100_
*126 _0101_
*127 _0102_
*128 _0103_
*129 _0104_
*130 _0105_
*131 _0106_
*132 _0107_
*133 _0108_
*134 _0109_
*135 _0110_
*136 _0111_
*137 _0112_
*138 _0113_
*139 _0114_
*140 _0115_
*141 _0116_
*142 _0117_
*143 _0118_
*144 _0119_
*145 _0120_
*146 _0121_
*147 _0122_
*148 _0123_
*149 _0124_
*150 _0125_
*151 _0126_
*152 _0127_
*153 _0128_
*154 _0129_
*155 _0130_
*156 _0131_
*157 _0132_
*158 _0133_
*159 _0134_
*160 _0135_
*161 _0136_
*162 _0137_
*163 _0138_
*164 _0139_
*165 _0140_
*166 _0141_
*167 _0142_
*168 _0143_
*169 _0144_
*170 _0145_
*171 _0146_
*172 _0147_
*173 _0148_
*174 _0149_
*175 _0150_
*176 _0151_
*177 _0152_
*178 _0153_
*179 _0154_
*180 _0155_
*181 _0156_
*182 _0157_
*183 _0158_
*184 _0159_
*185 _0160_
*186 _0161_
*187 _0162_
*188 _0163_
*189 _0164_
*190 _0165_
*191 _0166_
*192 _0167_
*193 _0168_
*194 _0169_
*195 _0170_
*196 _0171_
*197 _0172_
*198 _0173_
*199 _0174_
*200 _0175_
*201 _0176_
*202 _0177_
*203 _0178_
*204 _0179_
*205 _0180_
*206 _0181_
*207 _0182_
*208 _0183_
*209 _0184_
*210 _0185_
*211 _0186_
*212 _0187_
*213 _0188_
*214 _0189_
*215 _0190_
*216 _0191_
*217 _0192_
*218 _0193_
*219 _0194_
*220 _0195_
*221 _0196_
*222 _0197_
*223 _0198_
*224 _0199_
*225 _0200_
*226 _0201_
*227 _0202_
*228 _0203_
*229 _0204_
*230 _0205_
*231 _0206_
*232 _0207_
*233 _0208_
*234 _0209_
*235 _0210_
*236 _0211_
*237 _0212_
*238 _0213_
*239 _0214_
*240 _0215_
*241 _0216_
*242 _0217_
*243 _0218_
*244 _0219_
*245 _0220_
*246 _0221_
*247 _0222_
*248 _0223_
*249 _0224_
*250 _0225_
*251 _0226_
*252 _0227_
*253 _0228_
*254 _0229_
*255 _0230_
*256 _0231_
*257 _0232_
*258 _0233_
*259 _0234_
*260 _0235_
*261 _0236_
*262 _0237_
*263 _0238_
*264 _0239_
*265 _0240_
*266 _0241_
*267 _0242_
*268 _0243_
*269 _0244_
*270 _0245_
*271 _0246_
*272 _0247_
*273 _0248_
*274 _0249_
*275 _0250_
*276 _0251_
*277 _0252_
*278 _0253_
*279 _0254_
*280 _0255_
*281 _0256_
*282 _0257_
*283 _0258_
*284 _0259_
*285 _0260_
*286 _0261_
*287 _0262_
*288 _0263_
*289 _0264_
*290 _0265_
*291 _0266_
*292 _0267_
*293 _0268_
*294 _0269_
*295 _0270_
*296 _0271_
*297 _0272_
*298 _0273_
*299 _0274_
*300 _0275_
*301 _0276_
*302 _0277_
*303 _0278_
*304 _0279_
*305 _0280_
*306 _0281_
*307 _0282_
*308 _0283_
*309 _0284_
*310 _0285_
*311 _0286_
*312 _0287_
*313 _0288_
*314 _0289_
*315 _0290_
*316 _0291_
*317 _0292_
*318 _0293_
*319 _0294_
*320 _0295_
*321 _0296_
*322 _0297_
*323 _0298_
*324 _0299_
*325 _0300_
*326 _0301_
*327 _0302_
*328 _0303_
*329 _0304_
*330 _0305_
*331 _0306_
*332 _0307_
*333 _0308_
*334 _0309_
*335 _0310_
*336 _0311_
*337 _0312_
*338 _0313_
*339 _0314_
*340 _0315_
*341 _0316_
*342 _0317_
*343 _0318_
*344 _0319_
*345 _0320_
*346 _0321_
*347 _0322_
*348 _0323_
*349 _0324_
*350 _0325_
*351 _0326_
*352 _0327_
*353 _0328_
*354 _0329_
*355 _0330_
*356 _0331_
*357 _0332_
*358 _0333_
*359 _0334_
*360 _0335_
*361 _0336_
*362 _0337_
*363 _0338_
*364 _0339_
*365 _0340_
*366 _0341_
*367 _0342_
*368 _0343_
*369 _0344_
*370 _0345_
*371 _0346_
*372 _0347_
*373 _0348_
*374 _0349_
*375 _0350_
*376 _0351_
*377 _0352_
*378 _0353_
*379 _0354_
*380 _0355_
*381 _0356_
*382 _0357_
*383 _0358_
*384 _0359_
*385 _0360_
*386 _0361_
*387 _0362_
*388 _0363_
*389 _0364_
*390 _0365_
*391 _0366_
*392 _0367_
*393 _0368_
*394 _0369_
*395 _0370_
*396 _0371_
*397 _0372_
*398 _0373_
*399 _0374_
*400 _0375_
*401 _0376_
*402 _0377_
*403 _0378_
*404 _0379_
*405 _0380_
*406 _0381_
*407 _0382_
*408 _0383_
*409 _0384_
*410 _0385_
*411 _0386_
*412 _0387_
*413 _0388_
*414 _0389_
*415 _0390_
*416 _0391_
*417 _0392_
*418 _0393_
*419 _0394_
*420 _0395_
*421 _0396_
*422 _0397_
*423 _0398_
*424 _0399_
*425 _0400_
*426 _0401_
*427 _0402_
*428 _0403_
*429 _0404_
*430 _0405_
*431 _0406_
*432 _0407_
*433 _0408_
*434 _0409_
*435 _0410_
*436 _0411_
*437 _0412_
*438 _0413_
*439 _0414_
*440 _0415_
*441 _0416_
*442 _0417_
*443 _0418_
*444 _0419_
*445 _0420_
*446 _0421_
*447 _0422_
*448 _0423_
*449 _0424_
*450 _0425_
*451 _0426_
*452 _0427_
*453 _0428_
*454 _0429_
*455 _0430_
*456 _0431_
*457 _0432_
*458 _0433_
*459 _0434_
*460 _0435_
*461 _0436_
*462 _0437_
*463 _0438_
*464 _0439_
*465 _0440_
*466 _0441_
*467 _0442_
*468 _0443_
*469 _0444_
*470 _0445_
*471 _0446_
*472 _0447_
*473 _0448_
*474 _0449_
*475 _0450_
*476 _0451_
*477 clknet_0_clk
*478 clknet_4_0_0_clk
*479 clknet_4_10_0_clk
*480 clknet_4_11_0_clk
*481 clknet_4_12_0_clk
*482 clknet_4_13_0_clk
*483 clknet_4_14_0_clk
*484 clknet_4_15_0_clk
*485 clknet_4_1_0_clk
*486 clknet_4_2_0_clk
*487 clknet_4_3_0_clk
*488 clknet_4_4_0_clk
*489 clknet_4_5_0_clk
*490 clknet_4_6_0_clk
*491 clknet_4_7_0_clk
*492 clknet_4_8_0_clk
*493 clknet_4_9_0_clk
*494 count\[0\]
*495 count\[1\]
*496 count\[2\]
*497 count\[3\]
*498 count\[4\]
*499 mem\[0\]\[0\]
*500 mem\[0\]\[1\]
*501 mem\[0\]\[2\]
*502 mem\[0\]\[3\]
*503 mem\[0\]\[4\]
*504 mem\[0\]\[5\]
*505 mem\[0\]\[6\]
*506 mem\[0\]\[7\]
*507 mem\[10\]\[0\]
*508 mem\[10\]\[1\]
*509 mem\[10\]\[2\]
*510 mem\[10\]\[3\]
*511 mem\[10\]\[4\]
*512 mem\[10\]\[5\]
*513 mem\[10\]\[6\]
*514 mem\[10\]\[7\]
*515 mem\[11\]\[0\]
*516 mem\[11\]\[1\]
*517 mem\[11\]\[2\]
*518 mem\[11\]\[3\]
*519 mem\[11\]\[4\]
*520 mem\[11\]\[5\]
*521 mem\[11\]\[6\]
*522 mem\[11\]\[7\]
*523 mem\[12\]\[0\]
*524 mem\[12\]\[1\]
*525 mem\[12\]\[2\]
*526 mem\[12\]\[3\]
*527 mem\[12\]\[4\]
*528 mem\[12\]\[5\]
*529 mem\[12\]\[6\]
*530 mem\[12\]\[7\]
*531 mem\[13\]\[0\]
*532 mem\[13\]\[1\]
*533 mem\[13\]\[2\]
*534 mem\[13\]\[3\]
*535 mem\[13\]\[4\]
*536 mem\[13\]\[5\]
*537 mem\[13\]\[6\]
*538 mem\[13\]\[7\]
*539 mem\[14\]\[0\]
*540 mem\[14\]\[1\]
*541 mem\[14\]\[2\]
*542 mem\[14\]\[3\]
*543 mem\[14\]\[4\]
*544 mem\[14\]\[5\]
*545 mem\[14\]\[6\]
*546 mem\[14\]\[7\]
*547 mem\[15\]\[0\]
*548 mem\[15\]\[1\]
*549 mem\[15\]\[2\]
*550 mem\[15\]\[3\]
*551 mem\[15\]\[4\]
*552 mem\[15\]\[5\]
*553 mem\[15\]\[6\]
*554 mem\[15\]\[7\]
*555 mem\[1\]\[0\]
*556 mem\[1\]\[1\]
*557 mem\[1\]\[2\]
*558 mem\[1\]\[3\]
*559 mem\[1\]\[4\]
*560 mem\[1\]\[5\]
*561 mem\[1\]\[6\]
*562 mem\[1\]\[7\]
*563 mem\[2\]\[0\]
*564 mem\[2\]\[1\]
*565 mem\[2\]\[2\]
*566 mem\[2\]\[3\]
*567 mem\[2\]\[4\]
*568 mem\[2\]\[5\]
*569 mem\[2\]\[6\]
*570 mem\[2\]\[7\]
*571 mem\[3\]\[0\]
*572 mem\[3\]\[1\]
*573 mem\[3\]\[2\]
*574 mem\[3\]\[3\]
*575 mem\[3\]\[4\]
*576 mem\[3\]\[5\]
*577 mem\[3\]\[6\]
*578 mem\[3\]\[7\]
*579 mem\[4\]\[0\]
*580 mem\[4\]\[1\]
*581 mem\[4\]\[2\]
*582 mem\[4\]\[3\]
*583 mem\[4\]\[4\]
*584 mem\[4\]\[5\]
*585 mem\[4\]\[6\]
*586 mem\[4\]\[7\]
*587 mem\[5\]\[0\]
*588 mem\[5\]\[1\]
*589 mem\[5\]\[2\]
*590 mem\[5\]\[3\]
*591 mem\[5\]\[4\]
*592 mem\[5\]\[5\]
*593 mem\[5\]\[6\]
*594 mem\[5\]\[7\]
*595 mem\[6\]\[0\]
*596 mem\[6\]\[1\]
*597 mem\[6\]\[2\]
*598 mem\[6\]\[3\]
*599 mem\[6\]\[4\]
*600 mem\[6\]\[5\]
*601 mem\[6\]\[6\]
*602 mem\[6\]\[7\]
*603 mem\[7\]\[0\]
*604 mem\[7\]\[1\]
*605 mem\[7\]\[2\]
*606 mem\[7\]\[3\]
*607 mem\[7\]\[4\]
*608 mem\[7\]\[5\]
*609 mem\[7\]\[6\]
*610 mem\[7\]\[7\]
*611 mem\[8\]\[0\]
*612 mem\[8\]\[1\]
*613 mem\[8\]\[2\]
*614 mem\[8\]\[3\]
*615 mem\[8\]\[4\]
*616 mem\[8\]\[5\]
*617 mem\[8\]\[6\]
*618 mem\[8\]\[7\]
*619 mem\[9\]\[0\]
*620 mem\[9\]\[1\]
*621 mem\[9\]\[2\]
*622 mem\[9\]\[3\]
*623 mem\[9\]\[4\]
*624 mem\[9\]\[5\]
*625 mem\[9\]\[6\]
*626 mem\[9\]\[7\]
*627 net1
*628 net10
*629 net100
*630 net101
*631 net102
*632 net103
*633 net104
*634 net105
*635 net106
*636 net107
*637 net108
*638 net109
*639 net11
*640 net110
*641 net111
*642 net112
*643 net113
*644 net114
*645 net115
*646 net116
*647 net117
*648 net118
*649 net119
*650 net12
*651 net120
*652 net121
*653 net122
*654 net123
*655 net124
*656 net125
*657 net126
*658 net127
*659 net128
*660 net129
*661 net13
*662 net130
*663 net131
*664 net132
*665 net133
*666 net134
*667 net135
*668 net136
*669 net137
*670 net138
*671 net139
*672 net14
*673 net140
*674 net141
*675 net142
*676 net143
*677 net144
*678 net145
*679 net146
*680 net147
*681 net148
*682 net149
*683 net15
*684 net150
*685 net151
*686 net152
*687 net153
*688 net154
*689 net155
*690 net156
*691 net157
*692 net158
*693 net159
*694 net16
*695 net160
*696 net161
*697 net162
*698 net163
*699 net164
*700 net165
*701 net166
*702 net167
*703 net168
*704 net169
*705 net17
*706 net170
*707 net171
*708 net172
*709 net173
*710 net174
*711 net175
*712 net176
*713 net177
*714 net178
*715 net179
*716 net18
*717 net180
*718 net181
*719 net19
*720 net2
*721 net20
*722 net21
*723 net22
*724 net23
*725 net24
*726 net25
*727 net26
*728 net27
*729 net28
*730 net29
*731 net3
*732 net30
*733 net31
*734 net32
*735 net33
*736 net34
*737 net35
*738 net36
*739 net37
*740 net38
*741 net39
*742 net4
*743 net40
*744 net41
*745 net42
*746 net43
*747 net44
*748 net45
*749 net46
*750 net47
*751 net48
*752 net49
*753 net5
*754 net50
*755 net51
*756 net52
*757 net53
*758 net54
*759 net55
*760 net56
*761 net57
*762 net58
*763 net59
*764 net6
*765 net60
*766 net61
*767 net62
*768 net63
*769 net64
*770 net65
*771 net66
*772 net67
*773 net68
*774 net69
*775 net7
*776 net70
*777 net71
*778 net72
*779 net73
*780 net74
*781 net75
*782 net76
*783 net77
*784 net78
*785 net79
*786 net8
*787 net80
*788 net81
*789 net82
*790 net83
*791 net84
*792 net85
*793 net86
*794 net87
*795 net88
*796 net89
*797 net9
*798 net90
*799 net91
*800 net92
*801 net93
*802 net94
*803 net95
*804 net96
*805 net97
*806 net98
*807 net99
*808 rd_ptr\[0\]
*809 rd_ptr\[1\]
*810 rd_ptr\[2\]
*811 rd_ptr\[3\]
*812 wr_ptr\[0\]
*813 wr_ptr\[1\]
*814 wr_ptr\[2\]
*815 wr_ptr\[3\]
*816 ANTENNA_1
*817 FILLER_0_0_109
*818 FILLER_0_0_113
*819 FILLER_0_0_125
*820 FILLER_0_0_133
*821 FILLER_0_0_139
*822 FILLER_0_0_141
*823 FILLER_0_0_15
*824 FILLER_0_0_153
*825 FILLER_0_0_165
*826 FILLER_0_0_169
*827 FILLER_0_0_175
*828 FILLER_0_0_187
*829 FILLER_0_0_195
*830 FILLER_0_0_197
*831 FILLER_0_0_209
*832 FILLER_0_0_221
*833 FILLER_0_0_225
*834 FILLER_0_0_231
*835 FILLER_0_0_243
*836 FILLER_0_0_251
*837 FILLER_0_0_253
*838 FILLER_0_0_265
*839 FILLER_0_0_27
*840 FILLER_0_0_277
*841 FILLER_0_0_281
*842 FILLER_0_0_29
*843 FILLER_0_0_293
*844 FILLER_0_0_3
*845 FILLER_0_0_305
*846 FILLER_0_0_309
*847 FILLER_0_0_321
*848 FILLER_0_0_333
*849 FILLER_0_0_337
*850 FILLER_0_0_349
*851 FILLER_0_0_361
*852 FILLER_0_0_365
*853 FILLER_0_0_377
*854 FILLER_0_0_389
*855 FILLER_0_0_393
*856 FILLER_0_0_41
*857 FILLER_0_0_53
*858 FILLER_0_0_57
*859 FILLER_0_0_69
*860 FILLER_0_0_81
*861 FILLER_0_0_85
*862 FILLER_0_0_97
*863 FILLER_0_10_109
*864 FILLER_0_10_124
*865 FILLER_0_10_136
*866 FILLER_0_10_141
*867 FILLER_0_10_15
*868 FILLER_0_10_153
*869 FILLER_0_10_161
*870 FILLER_0_10_179
*871 FILLER_0_10_191
*872 FILLER_0_10_195
*873 FILLER_0_10_197
*874 FILLER_0_10_209
*875 FILLER_0_10_221
*876 FILLER_0_10_243
*877 FILLER_0_10_251
*878 FILLER_0_10_253
*879 FILLER_0_10_265
*880 FILLER_0_10_27
*881 FILLER_0_10_29
*882 FILLER_0_10_293
*883 FILLER_0_10_3
*884 FILLER_0_10_305
*885 FILLER_0_10_309
*886 FILLER_0_10_321
*887 FILLER_0_10_333
*888 FILLER_0_10_345
*889 FILLER_0_10_357
*890 FILLER_0_10_363
*891 FILLER_0_10_365
*892 FILLER_0_10_377
*893 FILLER_0_10_389
*894 FILLER_0_10_401
*895 FILLER_0_10_41
*896 FILLER_0_10_53
*897 FILLER_0_10_59
*898 FILLER_0_10_85
*899 FILLER_0_10_97
*900 FILLER_0_11_107
*901 FILLER_0_11_111
*902 FILLER_0_11_113
*903 FILLER_0_11_141
*904 FILLER_0_11_15
*905 FILLER_0_11_153
*906 FILLER_0_11_165
*907 FILLER_0_11_169
*908 FILLER_0_11_181
*909 FILLER_0_11_193
*910 FILLER_0_11_205
*911 FILLER_0_11_217
*912 FILLER_0_11_223
*913 FILLER_0_11_225
*914 FILLER_0_11_237
*915 FILLER_0_11_241
*916 FILLER_0_11_250
*917 FILLER_0_11_262
*918 FILLER_0_11_27
*919 FILLER_0_11_3
*920 FILLER_0_11_300
*921 FILLER_0_11_312
*922 FILLER_0_11_324
*923 FILLER_0_11_337
*924 FILLER_0_11_349
*925 FILLER_0_11_361
*926 FILLER_0_11_373
*927 FILLER_0_11_385
*928 FILLER_0_11_39
*929 FILLER_0_11_391
*930 FILLER_0_11_393
*931 FILLER_0_11_51
*932 FILLER_0_11_55
*933 FILLER_0_11_57
*934 FILLER_0_11_83
*935 FILLER_0_11_95
*936 FILLER_0_12_100
*937 FILLER_0_12_112
*938 FILLER_0_12_118
*939 FILLER_0_12_135
*940 FILLER_0_12_139
*941 FILLER_0_12_149
*942 FILLER_0_12_15
*943 FILLER_0_12_161
*944 FILLER_0_12_180
*945 FILLER_0_12_197
*946 FILLER_0_12_203
*947 FILLER_0_12_220
*948 FILLER_0_12_224
*949 FILLER_0_12_232
*950 FILLER_0_12_244
*951 FILLER_0_12_253
*952 FILLER_0_12_265
*953 FILLER_0_12_27
*954 FILLER_0_12_29
*955 FILLER_0_12_3
*956 FILLER_0_12_302
*957 FILLER_0_12_309
*958 FILLER_0_12_321
*959 FILLER_0_12_333
*960 FILLER_0_12_345
*961 FILLER_0_12_357
*962 FILLER_0_12_363
*963 FILLER_0_12_365
*964 FILLER_0_12_377
*965 FILLER_0_12_389
*966 FILLER_0_12_41
*967 FILLER_0_12_53
*968 FILLER_0_12_61
*969 FILLER_0_12_82
*970 FILLER_0_13_105
*971 FILLER_0_13_111
*972 FILLER_0_13_113
*973 FILLER_0_13_121
*974 FILLER_0_13_143
*975 FILLER_0_13_15
*976 FILLER_0_13_155
*977 FILLER_0_13_167
*978 FILLER_0_13_189
*979 FILLER_0_13_201
*980 FILLER_0_13_207
*981 FILLER_0_13_211
*982 FILLER_0_13_223
*983 FILLER_0_13_237
*984 FILLER_0_13_249
*985 FILLER_0_13_261
*986 FILLER_0_13_27
*987 FILLER_0_13_273
*988 FILLER_0_13_279
*989 FILLER_0_13_297
*990 FILLER_0_13_3
*991 FILLER_0_13_309
*992 FILLER_0_13_321
*993 FILLER_0_13_333
*994 FILLER_0_13_337
*995 FILLER_0_13_349
*996 FILLER_0_13_361
*997 FILLER_0_13_373
*998 FILLER_0_13_385
*999 FILLER_0_13_39
*1000 FILLER_0_13_391
*1001 FILLER_0_13_393
*1002 FILLER_0_13_51
*1003 FILLER_0_13_55
*1004 FILLER_0_13_57
*1005 FILLER_0_13_69
*1006 FILLER_0_13_81
*1007 FILLER_0_13_93
*1008 FILLER_0_14_109
*1009 FILLER_0_14_121
*1010 FILLER_0_14_129
*1011 FILLER_0_14_138
*1012 FILLER_0_14_141
*1013 FILLER_0_14_15
*1014 FILLER_0_14_153
*1015 FILLER_0_14_172
*1016 FILLER_0_14_184
*1017 FILLER_0_14_197
*1018 FILLER_0_14_209
*1019 FILLER_0_14_221
*1020 FILLER_0_14_233
*1021 FILLER_0_14_241
*1022 FILLER_0_14_245
*1023 FILLER_0_14_251
*1024 FILLER_0_14_253
*1025 FILLER_0_14_265
*1026 FILLER_0_14_27
*1027 FILLER_0_14_273
*1028 FILLER_0_14_29
*1029 FILLER_0_14_3
*1030 FILLER_0_14_302
*1031 FILLER_0_14_309
*1032 FILLER_0_14_321
*1033 FILLER_0_14_333
*1034 FILLER_0_14_345
*1035 FILLER_0_14_357
*1036 FILLER_0_14_363
*1037 FILLER_0_14_365
*1038 FILLER_0_14_377
*1039 FILLER_0_14_389
*1040 FILLER_0_14_401
*1041 FILLER_0_14_41
*1042 FILLER_0_14_53
*1043 FILLER_0_14_65
*1044 FILLER_0_14_77
*1045 FILLER_0_14_83
*1046 FILLER_0_14_85
*1047 FILLER_0_14_97
*1048 FILLER_0_15_108
*1049 FILLER_0_15_113
*1050 FILLER_0_15_125
*1051 FILLER_0_15_137
*1052 FILLER_0_15_145
*1053 FILLER_0_15_15
*1054 FILLER_0_15_162
*1055 FILLER_0_15_193
*1056 FILLER_0_15_205
*1057 FILLER_0_15_217
*1058 FILLER_0_15_223
*1059 FILLER_0_15_225
*1060 FILLER_0_15_229
*1061 FILLER_0_15_234
*1062 FILLER_0_15_262
*1063 FILLER_0_15_27
*1064 FILLER_0_15_274
*1065 FILLER_0_15_281
*1066 FILLER_0_15_3
*1067 FILLER_0_15_302
*1068 FILLER_0_15_314
*1069 FILLER_0_15_326
*1070 FILLER_0_15_334
*1071 FILLER_0_15_337
*1072 FILLER_0_15_349
*1073 FILLER_0_15_361
*1074 FILLER_0_15_373
*1075 FILLER_0_15_385
*1076 FILLER_0_15_39
*1077 FILLER_0_15_391
*1078 FILLER_0_15_393
*1079 FILLER_0_15_51
*1080 FILLER_0_15_55
*1081 FILLER_0_15_57
*1082 FILLER_0_15_69
*1083 FILLER_0_15_81
*1084 FILLER_0_15_93
*1085 FILLER_0_16_101
*1086 FILLER_0_16_118
*1087 FILLER_0_16_130
*1088 FILLER_0_16_138
*1089 FILLER_0_16_141
*1090 FILLER_0_16_149
*1091 FILLER_0_16_15
*1092 FILLER_0_16_155
*1093 FILLER_0_16_167
*1094 FILLER_0_16_191
*1095 FILLER_0_16_195
*1096 FILLER_0_16_197
*1097 FILLER_0_16_209
*1098 FILLER_0_16_217
*1099 FILLER_0_16_221
*1100 FILLER_0_16_233
*1101 FILLER_0_16_241
*1102 FILLER_0_16_249
*1103 FILLER_0_16_253
*1104 FILLER_0_16_263
*1105 FILLER_0_16_27
*1106 FILLER_0_16_271
*1107 FILLER_0_16_278
*1108 FILLER_0_16_29
*1109 FILLER_0_16_290
*1110 FILLER_0_16_3
*1111 FILLER_0_16_302
*1112 FILLER_0_16_309
*1113 FILLER_0_16_321
*1114 FILLER_0_16_333
*1115 FILLER_0_16_345
*1116 FILLER_0_16_357
*1117 FILLER_0_16_363
*1118 FILLER_0_16_365
*1119 FILLER_0_16_377
*1120 FILLER_0_16_389
*1121 FILLER_0_16_401
*1122 FILLER_0_16_41
*1123 FILLER_0_16_69
*1124 FILLER_0_16_81
*1125 FILLER_0_16_85
*1126 FILLER_0_16_90
*1127 FILLER_0_17_110
*1128 FILLER_0_17_130
*1129 FILLER_0_17_142
*1130 FILLER_0_17_15
*1131 FILLER_0_17_154
*1132 FILLER_0_17_166
*1133 FILLER_0_17_177
*1134 FILLER_0_17_191
*1135 FILLER_0_17_203
*1136 FILLER_0_17_207
*1137 FILLER_0_17_234
*1138 FILLER_0_17_262
*1139 FILLER_0_17_27
*1140 FILLER_0_17_274
*1141 FILLER_0_17_281
*1142 FILLER_0_17_293
*1143 FILLER_0_17_3
*1144 FILLER_0_17_305
*1145 FILLER_0_17_317
*1146 FILLER_0_17_329
*1147 FILLER_0_17_335
*1148 FILLER_0_17_337
*1149 FILLER_0_17_349
*1150 FILLER_0_17_35
*1151 FILLER_0_17_361
*1152 FILLER_0_17_365
*1153 FILLER_0_17_386
*1154 FILLER_0_17_393
*1155 FILLER_0_17_41
*1156 FILLER_0_17_73
*1157 FILLER_0_17_77
*1158 FILLER_0_18_109
*1159 FILLER_0_18_139
*1160 FILLER_0_18_141
*1161 FILLER_0_18_15
*1162 FILLER_0_18_153
*1163 FILLER_0_18_165
*1164 FILLER_0_18_171
*1165 FILLER_0_18_197
*1166 FILLER_0_18_209
*1167 FILLER_0_18_21
*1168 FILLER_0_18_221
*1169 FILLER_0_18_25
*1170 FILLER_0_18_265
*1171 FILLER_0_18_277
*1172 FILLER_0_18_289
*1173 FILLER_0_18_29
*1174 FILLER_0_18_3
*1175 FILLER_0_18_301
*1176 FILLER_0_18_307
*1177 FILLER_0_18_309
*1178 FILLER_0_18_321
*1179 FILLER_0_18_333
*1180 FILLER_0_18_345
*1181 FILLER_0_18_357
*1182 FILLER_0_18_363
*1183 FILLER_0_18_391
*1184 FILLER_0_18_403
*1185 FILLER_0_18_55
*1186 FILLER_0_18_66
*1187 FILLER_0_18_75
*1188 FILLER_0_18_83
*1189 FILLER_0_18_85
*1190 FILLER_0_18_91
*1191 FILLER_0_19_100
*1192 FILLER_0_19_113
*1193 FILLER_0_19_138
*1194 FILLER_0_19_15
*1195 FILLER_0_19_150
*1196 FILLER_0_19_162
*1197 FILLER_0_19_169
*1198 FILLER_0_19_175
*1199 FILLER_0_19_179
*1200 FILLER_0_19_185
*1201 FILLER_0_19_193
*1202 FILLER_0_19_205
*1203 FILLER_0_19_217
*1204 FILLER_0_19_223
*1205 FILLER_0_19_225
*1206 FILLER_0_19_238
*1207 FILLER_0_19_244
*1208 FILLER_0_19_261
*1209 FILLER_0_19_273
*1210 FILLER_0_19_279
*1211 FILLER_0_19_281
*1212 FILLER_0_19_293
*1213 FILLER_0_19_301
*1214 FILLER_0_19_327
*1215 FILLER_0_19_335
*1216 FILLER_0_19_337
*1217 FILLER_0_19_349
*1218 FILLER_0_19_361
*1219 FILLER_0_19_367
*1220 FILLER_0_19_378
*1221 FILLER_0_19_391
*1222 FILLER_0_19_393
*1223 FILLER_0_19_401
*1224 FILLER_0_19_41
*1225 FILLER_0_19_51
*1226 FILLER_0_19_55
*1227 FILLER_0_19_65
*1228 FILLER_0_19_7
*1229 FILLER_0_19_77
*1230 FILLER_0_19_89
*1231 FILLER_0_1_105
*1232 FILLER_0_1_111
*1233 FILLER_0_1_113
*1234 FILLER_0_1_125
*1235 FILLER_0_1_137
*1236 FILLER_0_1_149
*1237 FILLER_0_1_15
*1238 FILLER_0_1_161
*1239 FILLER_0_1_167
*1240 FILLER_0_1_169
*1241 FILLER_0_1_181
*1242 FILLER_0_1_193
*1243 FILLER_0_1_205
*1244 FILLER_0_1_217
*1245 FILLER_0_1_223
*1246 FILLER_0_1_225
*1247 FILLER_0_1_237
*1248 FILLER_0_1_249
*1249 FILLER_0_1_261
*1250 FILLER_0_1_27
*1251 FILLER_0_1_273
*1252 FILLER_0_1_279
*1253 FILLER_0_1_281
*1254 FILLER_0_1_293
*1255 FILLER_0_1_3
*1256 FILLER_0_1_305
*1257 FILLER_0_1_317
*1258 FILLER_0_1_329
*1259 FILLER_0_1_335
*1260 FILLER_0_1_337
*1261 FILLER_0_1_349
*1262 FILLER_0_1_361
*1263 FILLER_0_1_373
*1264 FILLER_0_1_385
*1265 FILLER_0_1_39
*1266 FILLER_0_1_391
*1267 FILLER_0_1_393
*1268 FILLER_0_1_51
*1269 FILLER_0_1_55
*1270 FILLER_0_1_57
*1271 FILLER_0_1_69
*1272 FILLER_0_1_81
*1273 FILLER_0_1_93
*1274 FILLER_0_20_109
*1275 FILLER_0_20_120
*1276 FILLER_0_20_132
*1277 FILLER_0_20_141
*1278 FILLER_0_20_15
*1279 FILLER_0_20_153
*1280 FILLER_0_20_165
*1281 FILLER_0_20_177
*1282 FILLER_0_20_190
*1283 FILLER_0_20_197
*1284 FILLER_0_20_209
*1285 FILLER_0_20_221
*1286 FILLER_0_20_233
*1287 FILLER_0_20_245
*1288 FILLER_0_20_251
*1289 FILLER_0_20_253
*1290 FILLER_0_20_265
*1291 FILLER_0_20_27
*1292 FILLER_0_20_277
*1293 FILLER_0_20_289
*1294 FILLER_0_20_29
*1295 FILLER_0_20_3
*1296 FILLER_0_20_300
*1297 FILLER_0_20_33
*1298 FILLER_0_20_352
*1299 FILLER_0_20_365
*1300 FILLER_0_20_371
*1301 FILLER_0_20_388
*1302 FILLER_0_20_400
*1303 FILLER_0_20_404
*1304 FILLER_0_20_42
*1305 FILLER_0_20_61
*1306 FILLER_0_20_73
*1307 FILLER_0_20_81
*1308 FILLER_0_20_85
*1309 FILLER_0_20_97
*1310 FILLER_0_21_105
*1311 FILLER_0_21_111
*1312 FILLER_0_21_113
*1313 FILLER_0_21_125
*1314 FILLER_0_21_129
*1315 FILLER_0_21_15
*1316 FILLER_0_21_154
*1317 FILLER_0_21_166
*1318 FILLER_0_21_169
*1319 FILLER_0_21_199
*1320 FILLER_0_21_211
*1321 FILLER_0_21_223
*1322 FILLER_0_21_225
*1323 FILLER_0_21_237
*1324 FILLER_0_21_249
*1325 FILLER_0_21_261
*1326 FILLER_0_21_27
*1327 FILLER_0_21_273
*1328 FILLER_0_21_279
*1329 FILLER_0_21_292
*1330 FILLER_0_21_3
*1331 FILLER_0_21_300
*1332 FILLER_0_21_304
*1333 FILLER_0_21_312
*1334 FILLER_0_21_317
*1335 FILLER_0_21_326
*1336 FILLER_0_21_333
*1337 FILLER_0_21_341
*1338 FILLER_0_21_353
*1339 FILLER_0_21_385
*1340 FILLER_0_21_39
*1341 FILLER_0_21_391
*1342 FILLER_0_21_393
*1343 FILLER_0_21_51
*1344 FILLER_0_21_55
*1345 FILLER_0_21_57
*1346 FILLER_0_21_69
*1347 FILLER_0_21_81
*1348 FILLER_0_21_93
*1349 FILLER_0_22_109
*1350 FILLER_0_22_121
*1351 FILLER_0_22_133
*1352 FILLER_0_22_15
*1353 FILLER_0_22_158
*1354 FILLER_0_22_170
*1355 FILLER_0_22_193
*1356 FILLER_0_22_197
*1357 FILLER_0_22_209
*1358 FILLER_0_22_221
*1359 FILLER_0_22_233
*1360 FILLER_0_22_248
*1361 FILLER_0_22_253
*1362 FILLER_0_22_265
*1363 FILLER_0_22_269
*1364 FILLER_0_22_27
*1365 FILLER_0_22_277
*1366 FILLER_0_22_29
*1367 FILLER_0_22_3
*1368 FILLER_0_22_302
*1369 FILLER_0_22_309
*1370 FILLER_0_22_321
*1371 FILLER_0_22_351
*1372 FILLER_0_22_363
*1373 FILLER_0_22_365
*1374 FILLER_0_22_374
*1375 FILLER_0_22_386
*1376 FILLER_0_22_398
*1377 FILLER_0_22_41
*1378 FILLER_0_22_53
*1379 FILLER_0_22_65
*1380 FILLER_0_22_82
*1381 FILLER_0_22_85
*1382 FILLER_0_22_97
*1383 FILLER_0_23_107
*1384 FILLER_0_23_111
*1385 FILLER_0_23_113
*1386 FILLER_0_23_125
*1387 FILLER_0_23_137
*1388 FILLER_0_23_15
*1389 FILLER_0_23_157
*1390 FILLER_0_23_165
*1391 FILLER_0_23_169
*1392 FILLER_0_23_198
*1393 FILLER_0_23_215
*1394 FILLER_0_23_223
*1395 FILLER_0_23_225
*1396 FILLER_0_23_233
*1397 FILLER_0_23_249
*1398 FILLER_0_23_253
*1399 FILLER_0_23_278
*1400 FILLER_0_23_3
*1401 FILLER_0_23_302
*1402 FILLER_0_23_314
*1403 FILLER_0_23_320
*1404 FILLER_0_23_328
*1405 FILLER_0_23_337
*1406 FILLER_0_23_349
*1407 FILLER_0_23_361
*1408 FILLER_0_23_373
*1409 FILLER_0_23_386
*1410 FILLER_0_23_393
*1411 FILLER_0_23_49
*1412 FILLER_0_23_55
*1413 FILLER_0_23_57
*1414 FILLER_0_23_67
*1415 FILLER_0_23_75
*1416 FILLER_0_24_11
*1417 FILLER_0_24_117
*1418 FILLER_0_24_129
*1419 FILLER_0_24_137
*1420 FILLER_0_24_141
*1421 FILLER_0_24_145
*1422 FILLER_0_24_165
*1423 FILLER_0_24_177
*1424 FILLER_0_24_189
*1425 FILLER_0_24_195
*1426 FILLER_0_24_197
*1427 FILLER_0_24_217
*1428 FILLER_0_24_229
*1429 FILLER_0_24_248
*1430 FILLER_0_24_29
*1431 FILLER_0_24_3
*1432 FILLER_0_24_306
*1433 FILLER_0_24_309
*1434 FILLER_0_24_338
*1435 FILLER_0_24_350
*1436 FILLER_0_24_362
*1437 FILLER_0_24_365
*1438 FILLER_0_24_379
*1439 FILLER_0_24_39
*1440 FILLER_0_24_391
*1441 FILLER_0_24_403
*1442 FILLER_0_24_43
*1443 FILLER_0_24_68
*1444 FILLER_0_25_106
*1445 FILLER_0_25_113
*1446 FILLER_0_25_121
*1447 FILLER_0_25_135
*1448 FILLER_0_25_147
*1449 FILLER_0_25_15
*1450 FILLER_0_25_153
*1451 FILLER_0_25_162
*1452 FILLER_0_25_169
*1453 FILLER_0_25_181
*1454 FILLER_0_25_193
*1455 FILLER_0_25_201
*1456 FILLER_0_25_22
*1457 FILLER_0_25_220
*1458 FILLER_0_25_225
*1459 FILLER_0_25_237
*1460 FILLER_0_25_241
*1461 FILLER_0_25_255
*1462 FILLER_0_25_259
*1463 FILLER_0_25_267
*1464 FILLER_0_25_271
*1465 FILLER_0_25_279
*1466 FILLER_0_25_281
*1467 FILLER_0_25_3
*1468 FILLER_0_25_304
*1469 FILLER_0_25_345
*1470 FILLER_0_25_357
*1471 FILLER_0_25_388
*1472 FILLER_0_25_393
*1473 FILLER_0_25_43
*1474 FILLER_0_25_52
*1475 FILLER_0_25_74
*1476 FILLER_0_26_108
*1477 FILLER_0_26_112
*1478 FILLER_0_26_141
*1479 FILLER_0_26_15
*1480 FILLER_0_26_153
*1481 FILLER_0_26_165
*1482 FILLER_0_26_177
*1483 FILLER_0_26_181
*1484 FILLER_0_26_191
*1485 FILLER_0_26_195
*1486 FILLER_0_26_205
*1487 FILLER_0_26_217
*1488 FILLER_0_26_229
*1489 FILLER_0_26_241
*1490 FILLER_0_26_249
*1491 FILLER_0_26_253
*1492 FILLER_0_26_261
*1493 FILLER_0_26_27
*1494 FILLER_0_26_286
*1495 FILLER_0_26_29
*1496 FILLER_0_26_294
*1497 FILLER_0_26_3
*1498 FILLER_0_26_303
*1499 FILLER_0_26_307
*1500 FILLER_0_26_309
*1501 FILLER_0_26_328
*1502 FILLER_0_26_340
*1503 FILLER_0_26_352
*1504 FILLER_0_26_365
*1505 FILLER_0_26_373
*1506 FILLER_0_26_387
*1507 FILLER_0_26_399
*1508 FILLER_0_26_41
*1509 FILLER_0_26_53
*1510 FILLER_0_26_82
*1511 FILLER_0_26_85
*1512 FILLER_0_27_103
*1513 FILLER_0_27_111
*1514 FILLER_0_27_113
*1515 FILLER_0_27_117
*1516 FILLER_0_27_145
*1517 FILLER_0_27_15
*1518 FILLER_0_27_153
*1519 FILLER_0_27_163
*1520 FILLER_0_27_167
*1521 FILLER_0_27_169
*1522 FILLER_0_27_175
*1523 FILLER_0_27_200
*1524 FILLER_0_27_212
*1525 FILLER_0_27_225
*1526 FILLER_0_27_237
*1527 FILLER_0_27_249
*1528 FILLER_0_27_261
*1529 FILLER_0_27_27
*1530 FILLER_0_27_273
*1531 FILLER_0_27_277
*1532 FILLER_0_27_281
*1533 FILLER_0_27_3
*1534 FILLER_0_27_314
*1535 FILLER_0_27_326
*1536 FILLER_0_27_334
*1537 FILLER_0_27_337
*1538 FILLER_0_27_349
*1539 FILLER_0_27_361
*1540 FILLER_0_27_380
*1541 FILLER_0_27_39
*1542 FILLER_0_27_393
*1543 FILLER_0_27_51
*1544 FILLER_0_27_55
*1545 FILLER_0_27_57
*1546 FILLER_0_27_67
*1547 FILLER_0_27_79
*1548 FILLER_0_27_91
*1549 FILLER_0_28_109
*1550 FILLER_0_28_121
*1551 FILLER_0_28_133
*1552 FILLER_0_28_139
*1553 FILLER_0_28_141
*1554 FILLER_0_28_147
*1555 FILLER_0_28_15
*1556 FILLER_0_28_172
*1557 FILLER_0_28_180
*1558 FILLER_0_28_184
*1559 FILLER_0_28_197
*1560 FILLER_0_28_209
*1561 FILLER_0_28_221
*1562 FILLER_0_28_233
*1563 FILLER_0_28_245
*1564 FILLER_0_28_251
*1565 FILLER_0_28_253
*1566 FILLER_0_28_265
*1567 FILLER_0_28_27
*1568 FILLER_0_28_277
*1569 FILLER_0_28_289
*1570 FILLER_0_28_29
*1571 FILLER_0_28_3
*1572 FILLER_0_28_301
*1573 FILLER_0_28_307
*1574 FILLER_0_28_309
*1575 FILLER_0_28_321
*1576 FILLER_0_28_333
*1577 FILLER_0_28_341
*1578 FILLER_0_28_363
*1579 FILLER_0_28_389
*1580 FILLER_0_28_401
*1581 FILLER_0_28_41
*1582 FILLER_0_28_53
*1583 FILLER_0_28_65
*1584 FILLER_0_28_77
*1585 FILLER_0_28_83
*1586 FILLER_0_28_85
*1587 FILLER_0_28_97
*1588 FILLER_0_29_105
*1589 FILLER_0_29_11
*1590 FILLER_0_29_111
*1591 FILLER_0_29_116
*1592 FILLER_0_29_129
*1593 FILLER_0_29_141
*1594 FILLER_0_29_149
*1595 FILLER_0_29_155
*1596 FILLER_0_29_167
*1597 FILLER_0_29_169
*1598 FILLER_0_29_181
*1599 FILLER_0_29_193
*1600 FILLER_0_29_205
*1601 FILLER_0_29_217
*1602 FILLER_0_29_221
*1603 FILLER_0_29_242
*1604 FILLER_0_29_254
*1605 FILLER_0_29_265
*1606 FILLER_0_29_277
*1607 FILLER_0_29_281
*1608 FILLER_0_29_29
*1609 FILLER_0_29_293
*1610 FILLER_0_29_3
*1611 FILLER_0_29_305
*1612 FILLER_0_29_313
*1613 FILLER_0_29_328
*1614 FILLER_0_29_337
*1615 FILLER_0_29_349
*1616 FILLER_0_29_356
*1617 FILLER_0_29_375
*1618 FILLER_0_29_387
*1619 FILLER_0_29_391
*1620 FILLER_0_29_393
*1621 FILLER_0_29_41
*1622 FILLER_0_29_53
*1623 FILLER_0_29_57
*1624 FILLER_0_29_69
*1625 FILLER_0_29_81
*1626 FILLER_0_29_93
*1627 FILLER_0_2_109
*1628 FILLER_0_2_121
*1629 FILLER_0_2_133
*1630 FILLER_0_2_139
*1631 FILLER_0_2_141
*1632 FILLER_0_2_15
*1633 FILLER_0_2_153
*1634 FILLER_0_2_165
*1635 FILLER_0_2_177
*1636 FILLER_0_2_189
*1637 FILLER_0_2_195
*1638 FILLER_0_2_197
*1639 FILLER_0_2_209
*1640 FILLER_0_2_221
*1641 FILLER_0_2_233
*1642 FILLER_0_2_245
*1643 FILLER_0_2_251
*1644 FILLER_0_2_253
*1645 FILLER_0_2_265
*1646 FILLER_0_2_27
*1647 FILLER_0_2_277
*1648 FILLER_0_2_289
*1649 FILLER_0_2_29
*1650 FILLER_0_2_3
*1651 FILLER_0_2_301
*1652 FILLER_0_2_307
*1653 FILLER_0_2_309
*1654 FILLER_0_2_321
*1655 FILLER_0_2_333
*1656 FILLER_0_2_345
*1657 FILLER_0_2_357
*1658 FILLER_0_2_363
*1659 FILLER_0_2_365
*1660 FILLER_0_2_377
*1661 FILLER_0_2_389
*1662 FILLER_0_2_401
*1663 FILLER_0_2_41
*1664 FILLER_0_2_53
*1665 FILLER_0_2_65
*1666 FILLER_0_2_77
*1667 FILLER_0_2_83
*1668 FILLER_0_2_85
*1669 FILLER_0_2_97
*1670 FILLER_0_30_105
*1671 FILLER_0_30_11
*1672 FILLER_0_30_123
*1673 FILLER_0_30_138
*1674 FILLER_0_30_141
*1675 FILLER_0_30_153
*1676 FILLER_0_30_165
*1677 FILLER_0_30_177
*1678 FILLER_0_30_189
*1679 FILLER_0_30_195
*1680 FILLER_0_30_197
*1681 FILLER_0_30_209
*1682 FILLER_0_30_246
*1683 FILLER_0_30_253
*1684 FILLER_0_30_275
*1685 FILLER_0_30_287
*1686 FILLER_0_30_299
*1687 FILLER_0_30_3
*1688 FILLER_0_30_307
*1689 FILLER_0_30_309
*1690 FILLER_0_30_338
*1691 FILLER_0_30_350
*1692 FILLER_0_30_362
*1693 FILLER_0_30_365
*1694 FILLER_0_30_377
*1695 FILLER_0_30_382
*1696 FILLER_0_30_394
*1697 FILLER_0_30_400
*1698 FILLER_0_30_46
*1699 FILLER_0_30_58
*1700 FILLER_0_30_70
*1701 FILLER_0_30_82